data/MODFLOW_Mg_metrics.Rda filter=lfs diff=lfs merge=lfs -text
