Package: CSLSfluxes
Type: Package
Title: CSLS Chemistry Flux Analysis
Version: 1.0.0
Author: Carolyn Voter
Maintainer: Carolyn Voter <cvoter@wisc.edu>
Description: Analyze CSLS MODFLOW scenarios for lake water and solute budgets.
License: MIT + file LICENSE
Imports: 
    CSLSdata,
    CSLSevap,
    dplyr,
    lubridate,
    magrittr,
    NISTunits,
    reshape2,
    rlang,
    stats,
    zoo
Suggests:
    CSLSscenarios,
    DT,
    extrafont,
    ggplot2,
    knitr,
    rmarkdown,
    stringr,
    patchwork,
    purrr,
    raster
Encoding: UTF-8
LazyData: true
RoxygenNote: 7.1.1
VignetteBuilder: knitr
Depends: 
    R (>= 2.10)
